dset ^grid.d1
options  byteswapped
undef 1.e30
title  OUTPUT FROM WRF V3.5 MODEL
pdef  465 300 lcc  37.258  104.226  233.000  150.500  45.00000  25.00000  105.00000  15000.000  15000.000
xdef 1480 linear   54.17607   0.06756756
ydef  684 linear   11.56636   0.06756756
zdef   20 levels
   0.00250
   0.00800
   0.01500
   0.02350
   0.03400
   0.04650
   0.06100
   0.07850
   0.09950
   0.12500
   0.15550
   0.19200
   0.23550
   0.28800
   0.35150
   0.42700
   0.51750
   0.62650
   0.75750
   0.91450
tdef    1 linear 16Z01NOV2020      60MN
VARS    8
dx      20  99  Data for
dy      20  99  Data for
dz      20  99  Data for
heiz    20  99  Data for
ter      0  99  ter
XLAT     0  99  latitude
XLONG    0  99  longtitude
land     0  99  land
ENDVARS
